Version 4
SHEET 1 880 680
WIRE -192 -48 -272 -48
WIRE 192 -48 -112 -48
WIRE 192 0 192 -48
WIRE -272 16 -272 -48
WIRE 0 16 -64 16
WIRE 112 64 48 64
WIRE 0 112 0 96
WIRE 112 112 112 64
WIRE 112 112 0 112
WIRE -272 144 -272 96
WIRE -64 144 -64 16
WIRE -64 144 -272 144
WIRE 0 144 0 112
WIRE 0 144 -64 144
WIRE 192 144 192 80
WIRE 192 144 0 144
WIRE 0 160 0 144
FLAG 0 160 0
SYMBOL Misc\\potentiometer -16 0 R0
WINDOW 3 39 166 Left 0
SYMATTR Value Rtot=10K wiper=.0
SYMATTR InstName U1
SYMBOL res -208 -32 R270
WINDOW 0 32 56 VTop 0
WINDOW 3 0 56 VBottom 0
SYMATTR InstName R1
SYMATTR Value 1k
SYMBOL Misc\\ntc_resistor 176 -16 R0
SYMATTR InstName U2
SYMATTR SpiceModel NTC_B
SYMATTR Value R0=47K B=3988
SYMBOL current -272 96 M180
WINDOW 0 24 88 Left 0
WINDOW 3 -59 -161 Left 0
WINDOW 123 0 0 Left 0
WINDOW 39 0 0 Left 0
SYMATTR InstName I1
SYMATTR Value PWL(0 0 1u 1m 100 1m 100.001 100u)
TEXT -288 208 Left 0 !.include potentiometer.sub
TEXT -952 -40 Left 0 !.SUBCKT NTC_B 1 2  R0={R0} B={B}\n*.PARAM R0=10000\n*.PARAM B=3988\n.PARAM TK=273.15\n.PARAM T0=25\nRP 1 2 1G\nB1 1 2  I=V(1,2)/{R0*exp(B*(1/(TEMP+TK)-1/(T0+TK)))}\n.ENDS
TEXT -520 -160 Left 0 ;.STEP TEMP LIST  17  27 37 47
TEXT -512 -200 Left 0 ;.OP
TEXT -528 -264 Left 0 ;.STEP TEMP  0 50 1
TEXT -520 -232 Left 0 !.tran 300
TEXT -520 -296 Left 0 !.options TEMP=25
