Version 4
SHEET 1 2580 680
WIRE 512 -816 352 -816
WIRE 880 -816 768 -816
WIRE 1008 -816 880 -816
WIRE 1024 -816 1008 -816
WIRE 880 -768 880 -816
WIRE 1008 -768 1008 -816
WIRE 1552 -768 1360 -768
WIRE 1952 -720 1760 -720
WIRE 2192 -720 2032 -720
WIRE -320 -688 -320 -704
WIRE -320 -688 -400 -688
WIRE -176 -688 -320 -688
WIRE 160 -688 80 -688
WIRE 208 -688 160 -688
WIRE 368 -688 208 -688
WIRE 1360 -688 1360 -768
WIRE 1408 -688 1360 -688
WIRE 640 -672 640 -720
WIRE 880 -672 880 -688
WIRE 880 -672 640 -672
WIRE 1552 -672 1552 -768
WIRE 1552 -672 1472 -672
WIRE 1616 -672 1552 -672
WIRE 1760 -672 1760 -720
WIRE 1760 -672 1696 -672
WIRE -400 -656 -400 -688
WIRE 1408 -656 1312 -656
WIRE -320 -640 -320 -688
WIRE 160 -640 160 -688
WIRE 368 -640 368 -688
WIRE 1008 -576 1008 -704
WIRE 640 -560 640 -592
WIRE 1760 -560 1760 -672
WIRE 1888 -560 1760 -560
WIRE 2080 -544 1952 -544
WIRE 2192 -544 2192 -720
WIRE 2192 -544 2080 -544
WIRE -400 -528 -400 -592
WIRE -400 -528 -432 -528
WIRE -320 -528 -320 -560
WIRE -320 -528 -400 -528
WIRE -48 -528 -48 -592
WIRE -48 -528 -320 -528
WIRE 160 -528 160 -560
WIRE 160 -528 -48 -528
WIRE 368 -528 368 -576
WIRE 368 -528 160 -528
WIRE 1872 -528 1840 -528
WIRE 1888 -528 1872 -528
WIRE 1552 -512 1360 -512
WIRE 1616 -512 1552 -512
WIRE 1760 -512 1760 -560
WIRE 1760 -512 1696 -512
WIRE -432 -496 -432 -528
WIRE -320 -480 -320 -528
WIRE 1760 -464 1760 -512
WIRE -400 -448 -400 -528
WIRE 1360 -432 1360 -512
WIRE 1408 -432 1360 -432
WIRE 1552 -416 1552 -512
WIRE 1552 -416 1472 -416
WIRE 2192 -416 2192 -464
WIRE 576 -400 544 -400
WIRE 672 -400 640 -400
WIRE 960 -400 928 -400
WIRE 1072 -400 1024 -400
WIRE 1408 -400 1328 -400
WIRE 160 -368 112 -368
WIRE 272 -368 224 -368
WIRE -400 -352 -400 -384
WIRE -320 -352 -320 -400
WIRE -320 -352 -400 -352
WIRE 1760 -352 1760 -400
WIRE 1872 -352 1872 -528
WIRE 1872 -352 1760 -352
WIRE 2192 -352 1872 -352
WIRE -320 -320 -320 -352
WIRE 544 -288 544 -400
WIRE 560 -288 544 -288
WIRE 672 -288 672 -400
WIRE 672 -288 640 -288
WIRE 928 -272 928 -400
WIRE 944 -272 928 -272
WIRE 1072 -272 1072 -400
WIRE 1072 -272 1024 -272
WIRE 112 -256 112 -368
WIRE 144 -256 112 -256
WIRE 272 -256 272 -368
WIRE 272 -256 224 -256
WIRE 272 -128 272 -256
WIRE 320 -128 272 -128
WIRE 448 -128 400 -128
WIRE 544 -128 544 -288
WIRE 544 -128 448 -128
WIRE 560 -128 544 -128
WIRE 672 -128 672 -288
WIRE 736 -128 672 -128
WIRE 848 -128 816 -128
WIRE 928 -128 928 -272
WIRE 928 -128 848 -128
WIRE 960 -128 928 -128
WIRE -128 -112 -176 -112
WIRE -48 -112 -64 -112
WIRE 48 -112 32 -112
WIRE 112 -112 112 -256
WIRE 112 -112 48 -112
WIRE 160 -112 112 -112
WIRE 672 -112 672 -128
WIRE 672 -112 624 -112
WIRE 1072 -112 1072 -272
WIRE 1072 -112 1024 -112
WIRE 1232 -112 1072 -112
WIRE 272 -96 272 -128
WIRE 272 -96 224 -96
WIRE 560 -96 528 -96
WIRE 960 -96 912 -96
WIRE 160 -80 112 -80
WIRE 848 -80 848 -128
WIRE 48 -64 48 -112
WIRE 448 -64 448 -128
WIRE 528 -64 528 -96
WIRE 912 -64 912 -96
WIRE -176 -48 -176 -112
WIRE 112 -48 112 -80
WIRE -176 80 -176 32
WIRE 48 80 48 0
WIRE 448 80 448 0
WIRE 848 80 848 -16
WIRE -176 208 -176 160
FLAG -176 208 0
FLAG -320 -320 Vss
FLAG -320 -704 Vdd
FLAG -432 -496 0
FLAG 192 -128 Vdd
FLAG 592 -144 Vdd
FLAG 992 -144 Vdd
FLAG 192 -64 Vss
FLAG 592 -80 Vss
FLAG 992 -80 Vss
FLAG 112 -48 0
FLAG 528 -64 0
FLAG 912 -64 0
FLAG 208 -688 5V
FLAG 352 -816 Vdd
FLAG 1024 -816 Vdc
FLAG 1232 -112 Vac
FLAG 1312 -656 Vdc
FLAG 1328 -400 Vac
FLAG 1920 -512 Vss
FLAG 1920 -576 Vdd
FLAG 1440 -384 Vss
FLAG 1440 -448 Vdd
FLAG 1440 -640 Vss
FLAG 1440 -704 Vdd
FLAG 1840 -528 0
FLAG 2080 -544 Vout
FLAG 640 -560 Vss
FLAG 48 80 0
FLAG 448 80 0
FLAG 848 80 0
FLAG 1008 -576 0
SYMBOL res 48 -128 R90
WINDOW 0 0 56 VBottom 2
WINDOW 3 32 56 VTop 2
SYMATTR InstName R1
SYMATTR Value 10k
SYMBOL res 240 -272 R90
WINDOW 0 0 56 VBottom 2
WINDOW 3 32 56 VTop 2
SYMATTR InstName R2
SYMATTR Value 10k
SYMBOL res 416 -144 R90
WINDOW 0 0 56 VBottom 2
WINDOW 3 32 56 VTop 2
SYMATTR InstName R3
SYMATTR Value 10k
SYMBOL res 656 -304 R90
WINDOW 0 0 56 VBottom 2
WINDOW 3 32 56 VTop 2
SYMATTR InstName R4
SYMATTR Value 10k
SYMBOL res 832 -144 R90
WINDOW 0 0 56 VBottom 2
WINDOW 3 32 56 VTop 2
SYMATTR InstName R5
SYMATTR Value 10k
SYMBOL res 1040 -288 R90
WINDOW 0 0 56 VBottom 2
WINDOW 3 32 56 VTop 2
SYMATTR InstName R6
SYMATTR Value 10k
SYMBOL voltage -176 -64 R0
WINDOW 123 0 0 Left 2
WINDOW 39 0 0 Left 2
WINDOW 3 -348 7 Invisible 2
SYMATTR Value PWL file="Z:\Users\aviatorblue\Documents\Senior Project\Electrical_Design\Amplifier_Design\Signals\DAC-OUTPUT_2.35Hz.txt"
SYMATTR InstName Vdac
SYMBOL voltage -320 -656 R0
WINDOW 123 0 0 Left 2
WINDOW 39 0 0 Left 2
SYMATTR InstName V2
SYMATTR Value 17
SYMBOL voltage -320 -496 R0
WINDOW 123 0 0 Left 2
WINDOW 39 0 0 Left 2
SYMATTR InstName V3
SYMATTR Value 17
SYMBOL PowerProducts\\LT1085-5 -48 -688 R0
SYMATTR InstName U5
SYMBOL res 144 -656 R0
SYMATTR InstName R_Arduino
SYMATTR Value 10Meg
SYMBOL PowerProducts\\LT1086 640 -816 R0
SYMATTR InstName U6
SYMBOL res 624 -688 R0
SYMATTR InstName RC
SYMATTR Value 2.6k
SYMBOL res 864 -784 R0
SYMATTR InstName RT
SYMATTR Value 2.0k
SYMBOL res 2176 -560 R0
SYMATTR InstName Rpzt
SYMATTR Value 300
SYMBOL cap 2176 -416 R0
SYMATTR InstName C1
SYMATTR Value 15.51n
SYMBOL Opamps\\LT1006 192 -160 R0
SYMATTR InstName U1
SYMBOL Opamps\\LT1006 592 -176 R0
SYMATTR InstName U2
SYMBOL Opamps\\LT1006 992 -176 R0
SYMATTR InstName U3
SYMBOL Opamps\\LT1006 1440 -736 R0
SYMATTR InstName U7
SYMBOL Opamps\\LT1006 1440 -480 R0
SYMATTR InstName U8
SYMBOL Opamps\\LT1006 1920 -608 R0
SYMATTR InstName U9
SYMBOL res 1712 -688 R90
WINDOW 0 0 56 VBottom 2
WINDOW 3 32 56 VTop 2
SYMATTR InstName R8
SYMATTR Value 1Meg
SYMBOL res 1712 -528 R90
WINDOW 0 0 56 VBottom 2
WINDOW 3 32 56 VTop 2
SYMATTR InstName R7
SYMATTR Value 1Meg
SYMBOL res 2048 -736 R90
WINDOW 0 0 56 VBottom 2
WINDOW 3 32 56 VTop 2
SYMATTR InstName R9
SYMATTR Value 1Meg
SYMBOL cap -64 -128 R90
WINDOW 0 0 32 VBottom 2
WINDOW 3 32 32 VTop 2
SYMATTR InstName C2
SYMATTR Value 100µ
SYMBOL cap 832 -80 R0
SYMATTR InstName C3
SYMATTR Value 10p
SYMBOL cap 32 -64 R0
SYMATTR InstName C4
SYMATTR Value 10p
SYMBOL cap 432 -64 R0
SYMATTR InstName C5
SYMATTR Value 10p
SYMBOL cap 1744 -464 R0
SYMATTR InstName C9
SYMATTR Value 0.5p
SYMBOL voltage -176 64 R0
WINDOW 123 0 0 Left 2
WINDOW 39 0 0 Left 2
WINDOW 3 -393 77 Invisible 2
SYMATTR Value PWL file="Z:\Users\aviatorblue\Documents\Senior Project\Electrical_Design\Amplifier_Design\Signals\White-Noise-1V.txt"
SYMATTR InstName Vnoise
SYMBOL cap -416 -448 R0
SYMATTR InstName C6
SYMATTR Value 1µ
SYMBOL cap -416 -656 R0
SYMATTR InstName C7
SYMATTR Value 1µ
SYMBOL cap 352 -640 R0
SYMATTR InstName C8
SYMATTR Value 1µ
SYMBOL cap 992 -768 R0
SYMATTR InstName C10
SYMATTR Value 1µ
SYMBOL cap 224 -384 R90
WINDOW 0 0 32 VBottom 2
WINDOW 3 32 32 VTop 2
SYMATTR InstName C11
SYMATTR Value 100n
SYMBOL cap 640 -416 R90
WINDOW 0 0 32 VBottom 2
WINDOW 3 32 32 VTop 2
SYMATTR InstName C12
SYMATTR Value 100n
SYMBOL cap 1024 -416 R90
WINDOW 0 0 32 VBottom 2
WINDOW 3 32 32 VTop 2
SYMATTR InstName C13
SYMATTR Value 10n
TEXT 368 -480 Left 2 !.tran 0 4 3.7
TEXT 2224 -616 Left 2 ;PZT
TEXT -24 128 Left 2 ;Fg = 159.15kHz
TEXT 336 128 Left 2 ;Fg = 159.15kHz
TEXT 760 128 Left 2 ;Fg = 159.15kHz
RECTANGLE Normal 2320 -304 2144 -592 2
RECTANGLE Normal 144 112 -64 -176 2
RECTANGLE Normal 528 112 304 -192 2
RECTANGLE Normal 944 112 720 -192 2
