Version 4
SHEET 1 2052 680
WIRE -48 -144 -48 -208
WIRE 384 -48 336 -48
WIRE 512 -48 464 -48
WIRE 832 -48 736 -48
WIRE 976 -48 896 -48
WIRE -288 -32 -288 -48
WIRE -288 -32 -368 -32
WIRE 1680 -32 1600 -32
WIRE 1840 -32 1760 -32
WIRE 1872 -32 1840 -32
WIRE -48 -16 -48 -64
WIRE -368 0 -368 -32
WIRE -288 32 -288 -32
WIRE 1840 32 1840 -32
WIRE 336 48 336 -48
WIRE 400 48 336 48
WIRE 512 48 512 -48
WIRE 512 48 464 48
WIRE 736 48 736 -48
WIRE 832 48 736 48
WIRE 976 48 976 -48
WIRE 976 48 912 48
WIRE -48 112 -48 64
WIRE -16 112 -48 112
WIRE 80 112 64 112
WIRE 160 112 144 112
WIRE 256 112 160 112
WIRE 336 112 336 48
WIRE 336 112 256 112
WIRE 160 128 160 112
WIRE 256 144 256 112
WIRE 1840 144 1840 96
WIRE -368 160 -368 64
WIRE -368 160 -400 160
WIRE -288 160 -288 112
WIRE -288 160 -368 160
WIRE -400 192 -400 160
WIRE 336 192 336 112
WIRE 400 192 336 192
WIRE -288 208 -288 160
WIRE 512 208 512 48
WIRE 512 208 464 208
WIRE 544 208 512 208
WIRE 560 208 544 208
WIRE 656 208 640 208
WIRE 736 208 736 48
WIRE 736 208 720 208
WIRE 848 208 736 208
WIRE 160 224 160 208
WIRE 256 224 256 208
WIRE 256 224 160 224
WIRE 336 224 256 224
WIRE 400 224 336 224
WIRE 976 224 976 48
WIRE 976 224 912 224
WIRE 1056 224 976 224
WIRE 1120 224 1056 224
WIRE 1232 224 1184 224
WIRE 1264 224 1232 224
WIRE 848 240 800 240
WIRE -368 256 -368 160
WIRE 336 272 336 224
WIRE 1232 272 1232 224
WIRE 544 288 544 208
WIRE 736 288 736 208
WIRE 800 288 800 240
WIRE -368 336 -368 320
WIRE -288 336 -288 288
WIRE -288 336 -368 336
WIRE -288 352 -288 336
WIRE 736 400 736 352
WIRE 1232 416 1232 352
FLAG -400 192 0
FLAG -288 -48 Vdd
FLAG -288 352 Vss
FLAG 432 176 Vdd
FLAG 336 272 0
FLAG -48 -208 0
FLAG 880 192 Vdd
FLAG 736 400 0
FLAG 800 288 0
FLAG 1232 416 0
FLAG 432 240 Vss
FLAG 880 256 Vss
FLAG 1840 144 0
FLAG 544 288 Stage1
IOPIN 544 288 BiDir
FLAG 1264 224 Vout
IOPIN 1264 224 Out
FLAG 1600 -32 Vout
IOPIN 1600 -32 In
FLAG 1872 -32 Vadc
IOPIN 1872 -32 Out
FLAG 1056 224 Vprediode
SYMBOL voltage -288 16 R0
WINDOW 123 0 0 Left 2
WINDOW 39 0 0 Left 2
SYMATTR InstName V1
SYMATTR Value 17
SYMBOL voltage -288 192 R0
WINDOW 123 0 0 Left 2
WINDOW 39 0 0 Left 2
SYMATTR InstName V2
SYMATTR Value 17
SYMBOL current -16 112 R270
WINDOW 0 -69 -8 VTop 2
WINDOW 3 -32 40 Invisible 2
WINDOW 123 0 0 Left 2
WINDOW 39 0 0 Left 2
SYMATTR InstName Photodiode_Current
SYMATTR Value PWL file=Spectra-Physics_Low_Freq-Data.txt
SYMBOL res 656 192 R90
WINDOW 0 0 56 VBottom 2
WINDOW 3 32 56 VTop 2
SYMATTR InstName R1
SYMATTR Value 100k
SYMBOL voltage -48 -48 R180
WINDOW 0 24 96 Left 2
WINDOW 3 24 16 Left 2
WINDOW 123 0 0 Left 2
WINDOW 39 0 0 Left 2
SYMATTR InstName V3
SYMATTR Value 5
SYMBOL res -64 -32 R0
SYMATTR InstName R5
SYMATTR Value 12k
SYMBOL cap 752 352 R180
WINDOW 0 24 56 Left 2
WINDOW 3 24 8 Left 2
SYMATTR InstName C1
SYMATTR Value 100p
SYMBOL Opamps\\LT1007 432 144 R0
SYMATTR InstName U1
SYMBOL Opamps\\LT1007 880 160 R0
SYMATTR InstName U2
SYMBOL res 144 112 R0
SYMATTR InstName R2
SYMATTR Value 1G
SYMBOL cap 240 144 R0
SYMATTR InstName C2
SYMATTR Value 100p
SYMBOL res 368 -32 R270
WINDOW 0 32 56 VTop 2
WINDOW 3 0 56 VBottom 2
SYMATTR InstName R3
SYMATTR Value 12Meg
SYMBOL res 816 64 R270
WINDOW 0 32 56 VTop 2
WINDOW 3 0 56 VBottom 2
SYMATTR InstName R4
SYMATTR Value 15Meg
SYMBOL cap 720 192 R90
WINDOW 0 0 32 VBottom 2
WINDOW 3 32 32 VTop 2
SYMATTR InstName C5
SYMATTR Value 60n
SYMBOL diode 1120 240 R270
WINDOW 0 32 32 VTop 2
WINDOW 3 0 32 VBottom 2
SYMATTR InstName D1
SYMATTR Value 1N914
SYMBOL res 1216 256 R0
SYMATTR InstName R6
SYMATTR Value 10Meg
SYMBOL cap -384 256 R0
SYMATTR InstName C6
SYMATTR Value 1µ
SYMBOL cap -384 0 R0
SYMATTR InstName C7
SYMATTR Value 1µ
SYMBOL cap 144 96 R90
WINDOW 0 0 32 VBottom 2
WINDOW 3 32 32 VTop 2
SYMATTR InstName C4
SYMATTR Value 10µ
SYMBOL cap 464 32 R90
WINDOW 0 0 32 VBottom 2
WINDOW 3 32 32 VTop 2
SYMATTR InstName C3
SYMATTR Value 50p
SYMBOL cap 896 -64 R90
WINDOW 0 0 32 VBottom 2
WINDOW 3 32 32 VTop 2
SYMATTR InstName C8
SYMATTR Value 10p
SYMBOL cap 1824 32 R0
SYMATTR InstName C9
SYMATTR Value 100p
SYMBOL res 1776 -48 R90
WINDOW 0 0 56 VBottom 2
WINDOW 3 32 56 VTop 2
SYMATTR InstName R7
SYMATTR Value 165k
TEXT -424 448 Left 2 !.tran 0 3.137 0
TEXT 616 -184 Left 2 ;Absolute Min for R1 = 40k before reaching instablity
TEXT 624 -144 Left 2 ;Absolute Max for C5 = 100nF before instability
TEXT 592 -112 Left 2 ;Assuming minimum signal of 200nA --> 3.3V 1/2 signal
TEXT 1552 -144 Left 2 ;Arduino ADC - Low Pass Digital Filter
RECTANGLE Normal 2048 208 1776 -112 2
