Version 4
SHEET 1 2276 680
WIRE 160 -288 160 -336
WIRE 160 -176 160 -208
WIRE 608 -48 560 -48
WIRE 736 -48 688 -48
WIRE 1056 -48 960 -48
WIRE 1200 -48 1120 -48
WIRE -288 -32 -288 -48
WIRE -288 -32 -368 -32
WIRE 1904 -32 1824 -32
WIRE 2064 -32 1984 -32
WIRE 2096 -32 2064 -32
WIRE -368 0 -368 -32
WIRE -288 32 -288 -32
WIRE 2064 32 2064 -32
WIRE 560 48 560 -48
WIRE 624 48 560 48
WIRE 736 48 736 -48
WIRE 736 48 688 48
WIRE 960 48 960 -48
WIRE 1056 48 960 48
WIRE 1200 48 1200 -48
WIRE 1200 48 1136 48
WIRE 160 144 160 -96
WIRE 192 144 160 144
WIRE 320 144 272 144
WIRE 416 144 320 144
WIRE 560 144 560 48
WIRE 560 144 416 144
WIRE 2064 144 2064 96
WIRE -368 160 -368 64
WIRE -368 160 -400 160
WIRE -288 160 -288 112
WIRE -288 160 -368 160
WIRE 320 160 320 144
WIRE 416 176 416 144
WIRE -400 192 -400 160
WIRE 560 192 560 144
WIRE 624 192 560 192
WIRE -288 208 -288 160
WIRE 736 208 736 48
WIRE 736 208 688 208
WIRE 768 208 736 208
WIRE 784 208 768 208
WIRE 880 208 864 208
WIRE 960 208 960 48
WIRE 960 208 944 208
WIRE 1072 208 960 208
WIRE 624 224 560 224
WIRE 1200 224 1200 48
WIRE 1200 224 1136 224
WIRE 1280 224 1200 224
WIRE 1344 224 1280 224
WIRE 1456 224 1408 224
WIRE 1488 224 1456 224
WIRE 1072 240 1024 240
WIRE -368 256 -368 160
WIRE 320 256 320 240
WIRE 368 256 320 256
WIRE 416 256 416 240
WIRE 416 256 368 256
WIRE 560 256 560 224
WIRE 560 256 416 256
WIRE 560 272 560 256
WIRE 1456 272 1456 224
WIRE 768 288 768 208
WIRE 960 288 960 208
WIRE 1024 288 1024 240
WIRE -368 336 -368 320
WIRE -288 336 -288 288
WIRE -288 336 -368 336
WIRE -288 352 -288 336
WIRE 960 400 960 352
WIRE 1456 416 1456 352
FLAG -400 192 0
FLAG -288 -48 Vdd
FLAG -288 352 Vss
FLAG 656 176 Vdd
FLAG 560 272 0
FLAG 160 -336 0
FLAG 1104 192 Vdd
FLAG 960 400 0
FLAG 1024 288 0
FLAG 1456 416 0
FLAG 656 240 Vss
FLAG 1104 256 Vss
FLAG 2064 144 0
FLAG 768 288 Stage1
IOPIN 768 288 BiDir
FLAG 1488 224 Vout
IOPIN 1488 224 Out
FLAG 1824 -32 Vout
IOPIN 1824 -32 In
FLAG 2096 -32 Vadc
IOPIN 2096 -32 Out
FLAG 1280 224 Vprediode
FLAG 368 256 0
SYMBOL voltage -288 16 R0
WINDOW 123 0 0 Left 2
WINDOW 39 0 0 Left 2
SYMATTR InstName V1
SYMATTR Value 17
SYMBOL voltage -288 192 R0
WINDOW 123 0 0 Left 2
WINDOW 39 0 0 Left 2
SYMATTR InstName V2
SYMATTR Value 17
SYMBOL current 192 144 R270
WINDOW 0 53 134 VTop 2
WINDOW 3 25 134 VTop 2
WINDOW 123 0 0 Left 2
WINDOW 39 0 0 Left 2
SYMATTR InstName Photodiode_Current
SYMATTR Value PWL file=Spectra-Physics_Low_Freq-Data.txt
SYMBOL res 880 192 R90
WINDOW 0 0 56 VBottom 2
WINDOW 3 32 56 VTop 2
SYMATTR InstName R3
SYMATTR Value 100k
SYMBOL voltage 160 -192 R180
WINDOW 0 24 96 Left 2
WINDOW 3 24 16 Left 2
WINDOW 123 0 0 Left 2
WINDOW 39 0 0 Left 2
SYMATTR InstName V3
SYMATTR Value 5
SYMBOL res 144 -192 R0
SYMATTR InstName R1
SYMATTR Value 12k
SYMBOL cap 976 352 R180
WINDOW 0 24 56 Left 2
WINDOW 3 24 8 Left 2
SYMATTR InstName C4
SYMATTR Value 100p
SYMBOL Opamps\\LT1007 656 144 R0
SYMATTR InstName U1
SYMBOL Opamps\\LT1007 1104 160 R0
SYMATTR InstName U2
SYMBOL res 304 144 R0
WINDOW 0 -111 79 Left 2
SYMATTR InstName R_diode
SYMATTR Value 1G
SYMBOL cap 400 176 R0
WINDOW 3 28 56 Left 2
SYMATTR Value 100p
SYMATTR InstName C_diode
SYMBOL res 592 -32 R270
WINDOW 0 32 56 VTop 2
WINDOW 3 0 56 VBottom 2
SYMATTR InstName R2
SYMATTR Value 9Meg
SYMBOL res 1040 64 R270
WINDOW 0 32 56 VTop 2
WINDOW 3 0 56 VBottom 2
SYMATTR InstName R4
SYMATTR Value 20Meg
SYMBOL cap 944 192 R90
WINDOW 0 0 32 VBottom 2
WINDOW 3 32 32 VTop 2
SYMATTR InstName C2
SYMATTR Value 68n
SYMBOL diode 1344 240 R270
WINDOW 0 32 32 VTop 2
WINDOW 3 0 32 VBottom 2
SYMATTR InstName D1
SYMATTR Value 1N914
SYMBOL res 1440 256 R0
SYMATTR InstName R5
SYMATTR Value 10Meg
SYMBOL cap -384 256 R0
WINDOW 0 -59 10 Left 2
SYMATTR InstName C_PS2
SYMATTR Value 1µ
SYMBOL cap -384 0 R0
WINDOW 0 -63 3 Left 2
SYMATTR InstName C_PS1
SYMATTR Value 1µ
SYMBOL cap 688 32 R90
WINDOW 0 0 32 VBottom 2
WINDOW 3 32 32 VTop 2
SYMATTR InstName C1
SYMATTR Value 47p
SYMBOL cap 1120 -64 R90
WINDOW 0 0 32 VBottom 2
WINDOW 3 32 32 VTop 2
SYMATTR InstName C3
SYMATTR Value 10p
SYMBOL cap 2048 32 R0
SYMATTR InstName C9
SYMATTR Value 100p
SYMBOL res 2000 -48 R90
WINDOW 0 0 56 VBottom 2
WINDOW 3 32 56 VTop 2
SYMATTR InstName R7
SYMATTR Value 165k
TEXT -424 448 Left 2 !.tran 0 3.8 0
TEXT 840 -184 Left 2 ;Absolute Min for R1 = 40k before reaching instablity
TEXT 848 -144 Left 2 ;Absolute Max for C5 = 100nF before instability
TEXT 816 -112 Left 2 ;Assuming minimum signal of 200nA --> 3.3V 1/2 signal
TEXT 1776 -144 Left 2 ;Arduino ADC - Low Pass Digital Filter
TEXT 120 -8 Left 2 ;Diode Representational Circuit
TEXT -528 -176 Left 2 ;Representational Power Supply
TEXT 240 -144 Left 2 ;Trim resistor
RECTANGLE Normal 2272 208 2000 -112 2
RECTANGLE Normal 528 320 112 16 2
RECTANGLE Normal -208 432 -448 -144 2
