Version 4
SHEET 1 2580 680
WIRE 1552 -768 1360 -768
WIRE 1952 -720 1760 -720
WIRE 2192 -720 2032 -720
WIRE 1360 -688 1360 -768
WIRE 1408 -688 1360 -688
WIRE 512 -672 352 -672
WIRE 880 -672 768 -672
WIRE 1024 -672 880 -672
WIRE 1552 -672 1552 -768
WIRE 1552 -672 1472 -672
WIRE 1616 -672 1552 -672
WIRE 1760 -672 1760 -720
WIRE 1760 -672 1696 -672
WIRE 1408 -656 1312 -656
WIRE 880 -624 880 -672
WIRE 1760 -560 1760 -672
WIRE 1888 -560 1760 -560
WIRE -320 -544 -320 -560
WIRE -176 -544 -320 -544
WIRE 160 -544 80 -544
WIRE 208 -544 160 -544
WIRE 2080 -544 1952 -544
WIRE 2192 -544 2192 -720
WIRE 2192 -544 2080 -544
WIRE 640 -528 640 -576
WIRE 880 -528 880 -544
WIRE 880 -528 640 -528
WIRE 1872 -528 1840 -528
WIRE 1888 -528 1872 -528
WIRE 1552 -512 1360 -512
WIRE 1616 -512 1552 -512
WIRE 1760 -512 1760 -560
WIRE 1760 -512 1696 -512
WIRE -320 -496 -320 -544
WIRE 160 -496 160 -544
WIRE 1360 -432 1360 -512
WIRE 1408 -432 1360 -432
WIRE 640 -416 640 -448
WIRE 1552 -416 1552 -512
WIRE 1552 -416 1472 -416
WIRE 2192 -416 2192 -464
WIRE 1408 -400 1328 -400
WIRE -320 -384 -320 -416
WIRE -320 -384 -432 -384
WIRE -48 -384 -48 -448
WIRE -48 -384 -320 -384
WIRE 160 -384 160 -416
WIRE 160 -384 -48 -384
WIRE -432 -352 -432 -384
WIRE 1872 -352 1872 -528
WIRE 2192 -352 1872 -352
WIRE -320 -336 -320 -384
WIRE 432 -288 416 -288
WIRE 544 -288 512 -288
WIRE 720 -272 704 -272
WIRE 848 -272 800 -272
WIRE 144 -256 112 -256
WIRE 272 -256 224 -256
WIRE -320 -176 -320 -256
WIRE 272 -128 272 -256
WIRE 320 -128 272 -128
WIRE 416 -128 416 -288
WIRE 416 -128 400 -128
WIRE 432 -128 416 -128
WIRE 544 -128 544 -288
WIRE 608 -128 544 -128
WIRE 704 -128 704 -272
WIRE 704 -128 688 -128
WIRE 736 -128 704 -128
WIRE -128 -112 -176 -112
WIRE -48 -112 -64 -112
WIRE 112 -112 112 -256
WIRE 112 -112 32 -112
WIRE 160 -112 112 -112
WIRE 544 -112 544 -128
WIRE 544 -112 496 -112
WIRE 848 -112 848 -272
WIRE 848 -112 800 -112
WIRE 1008 -112 848 -112
WIRE 272 -96 272 -128
WIRE 272 -96 224 -96
WIRE 432 -96 400 -96
WIRE 736 -96 688 -96
WIRE 160 -80 112 -80
WIRE 400 -64 400 -96
WIRE 688 -64 688 -96
WIRE -176 -48 -176 -112
WIRE 112 -48 112 -80
WIRE -176 96 -176 32
FLAG -176 96 0
FLAG -320 -176 Vss
FLAG -320 -560 Vdd
FLAG -432 -352 0
FLAG 192 -128 Vdd
FLAG 464 -144 Vdd
FLAG 768 -144 Vdd
FLAG 192 -64 Vss
FLAG 464 -80 Vss
FLAG 768 -80 Vss
FLAG 112 -48 0
FLAG 400 -64 0
FLAG 688 -64 0
FLAG 208 -544 5V
FLAG 352 -672 Vdd
FLAG 1024 -672 Vdc
FLAG 1008 -112 Vac
FLAG 1312 -656 Vdc
FLAG 1328 -400 Vac
FLAG 1920 -512 Vss
FLAG 1920 -576 Vdd
FLAG 1440 -384 Vss
FLAG 1440 -448 Vdd
FLAG 1440 -640 Vss
FLAG 1440 -704 Vdd
FLAG 1840 -528 0
FLAG 2080 -544 Vout
FLAG 640 -416 Vss
SYMBOL res 48 -128 R90
WINDOW 0 0 56 VBottom 2
WINDOW 3 32 56 VTop 2
SYMATTR InstName R1
SYMATTR Value 100k
SYMBOL res 240 -272 R90
WINDOW 0 0 56 VBottom 2
WINDOW 3 32 56 VTop 2
SYMATTR InstName R2
SYMATTR Value 10k
SYMBOL res 416 -144 R90
WINDOW 0 0 56 VBottom 2
WINDOW 3 32 56 VTop 2
SYMATTR InstName R3
SYMATTR Value 10k
SYMBOL res 528 -304 R90
WINDOW 0 0 56 VBottom 2
WINDOW 3 32 56 VTop 2
SYMATTR InstName R4
SYMATTR Value 10k
SYMBOL res 704 -144 R90
WINDOW 0 0 56 VBottom 2
WINDOW 3 32 56 VTop 2
SYMATTR InstName R5
SYMATTR Value 10k
SYMBOL res 816 -288 R90
WINDOW 0 0 56 VBottom 2
WINDOW 3 32 56 VTop 2
SYMATTR InstName R6
SYMATTR Value 10k
SYMBOL voltage -176 -64 R0
WINDOW 123 0 0 Left 2
WINDOW 39 0 0 Left 2
SYMATTR InstName V1
SYMATTR Value PWL file=DAC_signal.txt
SYMBOL voltage -320 -512 R0
WINDOW 123 0 0 Left 2
WINDOW 39 0 0 Left 2
SYMATTR InstName V2
SYMATTR Value 17
SYMBOL voltage -320 -352 R0
WINDOW 123 0 0 Left 2
WINDOW 39 0 0 Left 2
SYMATTR InstName V3
SYMATTR Value 17
SYMBOL PowerProducts\\LT1085-5 -48 -544 R0
SYMATTR InstName U5
SYMBOL res 144 -512 R0
SYMATTR InstName R_Arduino
SYMATTR Value 10Meg
SYMBOL PowerProducts\\LT1086 640 -672 R0
SYMATTR InstName U6
SYMBOL res 624 -544 R0
SYMATTR InstName R10
SYMATTR Value 2.6k
SYMBOL res 864 -640 R0
SYMATTR InstName R11
SYMATTR Value 1.5k
SYMBOL res 2176 -560 R0
SYMATTR InstName R13
SYMATTR Value 300
SYMBOL cap 2176 -416 R0
SYMATTR InstName C1
SYMATTR Value 15.51n
SYMBOL Opamps\\LT1006 192 -160 R0
SYMATTR InstName U1
SYMBOL Opamps\\LT1006 464 -176 R0
SYMATTR InstName U2
SYMBOL Opamps\\LT1006 768 -176 R0
SYMATTR InstName U3
SYMBOL Opamps\\LT1006 1440 -736 R0
SYMATTR InstName U7
SYMBOL Opamps\\LT1006 1440 -480 R0
SYMATTR InstName U8
SYMBOL Opamps\\LT1006 1920 -608 R0
SYMATTR InstName U9
SYMBOL res 1712 -688 R90
WINDOW 0 0 56 VBottom 2
WINDOW 3 32 56 VTop 2
SYMATTR InstName R9
SYMATTR Value 1Meg
SYMBOL res 1712 -528 R90
WINDOW 0 0 56 VBottom 2
WINDOW 3 32 56 VTop 2
SYMATTR InstName R12
SYMATTR Value 1Meg
SYMBOL res 2048 -736 R90
WINDOW 0 0 56 VBottom 2
WINDOW 3 32 56 VTop 2
SYMATTR InstName R14
SYMATTR Value 1Meg
SYMBOL cap -64 -128 R90
WINDOW 0 0 32 VBottom 2
WINDOW 3 32 32 VTop 2
SYMATTR InstName C2
SYMATTR Value 100µ
TEXT -456 120 Left 2 !.tran 0 4 3
TEXT 2224 -616 Left 2 ;PZT
RECTANGLE Normal 2320 -304 2144 -592 2
