Version 4
SHEET 1 2252 692
WIRE 896 -608 608 -608
WIRE 1232 -608 1152 -608
WIRE 1392 -608 1232 -608
WIRE -176 -576 -208 -576
WIRE -80 -576 -96 -576
WIRE 1232 -576 1232 -608
WIRE -80 -528 -80 -576
WIRE 224 -528 -80 -528
WIRE -176 -480 -208 -480
WIRE -80 -480 -80 -528
WIRE -80 -480 -96 -480
WIRE 1024 -464 1024 -512
WIRE 1232 -464 1232 -496
WIRE 1232 -464 1024 -464
WIRE 1024 -416 1024 -464
WIRE 432 -352 432 -384
WIRE 64 -240 64 -272
WIRE 432 -240 432 -272
WIRE 1120 -160 1120 -176
WIRE 64 -112 64 -176
WIRE 1120 -80 1120 -160
WIRE 1120 -80 944 -80
WIRE 352 -48 352 -80
WIRE 1120 -48 1120 -80
WIRE 720 0 720 -80
WIRE 720 0 544 0
WIRE 944 0 944 -80
WIRE 720 32 720 0
WIRE 352 80 352 32
WIRE 544 80 544 0
WIRE 1120 80 1120 32
WIRE 1216 80 1120 80
WIRE 1360 80 1280 80
WIRE 1120 112 1120 80
WIRE 720 160 720 112
WIRE 944 160 944 80
WIRE 944 160 720 160
WIRE 1056 160 944 160
WIRE 720 192 720 160
WIRE 944 224 944 160
WIRE 416 240 384 240
WIRE 544 240 544 160
WIRE 544 240 496 240
WIRE 656 240 544 240
WIRE 1120 256 1120 208
WIRE 544 304 544 240
WIRE 720 336 720 288
WIRE 720 464 720 416
WIRE 848 464 720 464
WIRE 1120 464 1120 336
WIRE 1248 464 1120 464
WIRE 848 496 848 464
WIRE 1248 496 1248 464
WIRE 720 512 720 464
WIRE 1120 512 1120 464
WIRE 544 640 544 384
WIRE 720 640 720 592
WIRE 720 640 544 640
WIRE 848 640 848 560
WIRE 848 640 720 640
WIRE 944 640 944 304
WIRE 944 640 848 640
WIRE 1120 640 1120 592
WIRE 1120 640 944 640
WIRE 1248 640 1248 560
WIRE 1248 640 1120 640
WIRE 720 672 720 640
FLAG 432 -240 0
FLAG 432 -384 Vdd
FLAG 720 -80 Vdd
FLAG 1120 -160 Vdd
FLAG 720 672 0
FLAG 352 80 0
FLAG 352 -80 Vin
FLAG 384 240 Vin
FLAG 1360 80 SSAC
FLAG 608 -608 Vdd
FLAG 64 -112 0
FLAG -208 -576 Vdc
FLAG -208 -480 SSAC
FLAG 224 -528 Vped
FLAG 1392 -608 Vdc
FLAG 1024 -336 0
SYMBOL voltage 352 -64 R0
WINDOW 0 -125 -5 Left 2
WINDOW 3 -163 143 Invisible 2
WINDOW 123 0 0 Left 2
WINDOW 39 0 0 Left 2
SYMATTR InstName Varduino
SYMATTR Value PWL file=sawtooth_dc.txt
SYMBOL voltage 432 -368 R0
WINDOW 123 0 0 Left 2
WINDOW 39 0 0 Left 2
SYMATTR InstName V3
SYMATTR Value 34
SYMBOL res 512 224 R90
WINDOW 0 0 56 VBottom 2
WINDOW 3 32 56 VTop 2
SYMATTR InstName Rs
SYMATTR Value 2k
SYMBOL npn 656 192 R0
SYMATTR InstName Q1
SYMATTR Value 2N2222
SYMBOL res 528 64 R0
SYMATTR InstName R1
SYMATTR Value 10k
SYMBOL res 528 288 R0
SYMATTR InstName R2
SYMATTR Value 1k
SYMBOL res 704 320 R0
SYMATTR InstName Re1
SYMATTR Value 50
SYMBOL res 704 496 R0
SYMATTR InstName R4
SYMATTR Value 500
SYMBOL res 704 16 R0
SYMATTR InstName R5
SYMATTR Value 6k
SYMBOL cap 832 496 R0
SYMATTR InstName C1
SYMATTR Value 10p
SYMBOL npn 1056 112 R0
SYMATTR InstName Q2
SYMATTR Value 2N2222
SYMBOL res 928 -16 R0
SYMATTR InstName R6
SYMATTR Value 10k
SYMBOL res 928 208 R0
SYMATTR InstName R7
SYMATTR Value 1k
SYMBOL res 1104 240 R0
SYMATTR InstName Re2
SYMATTR Value 50
SYMBOL res 1104 496 R0
SYMATTR InstName R8
SYMATTR Value 560
SYMBOL res 1104 -64 R0
SYMATTR InstName R9
SYMATTR Value 4k
SYMBOL cap 1232 496 R0
SYMATTR InstName C2
SYMATTR Value 10p
SYMBOL res 48 -368 R0
SYMATTR InstName R3
SYMATTR Value 370
SYMBOL cap 48 -240 R0
WINDOW 0 -37 9 Left 2
WINDOW 3 -82 58 Left 2
SYMATTR InstName C3
SYMATTR Value 15.51n
SYMBOL cap 1280 64 R90
WINDOW 0 0 32 VBottom 2
WINDOW 3 32 32 VTop 2
SYMATTR InstName C5
SYMATTR Value 10µ
SYMBOL res -80 -592 R90
WINDOW 0 0 56 VBottom 2
WINDOW 3 32 56 VTop 2
SYMATTR InstName R11
SYMATTR Value 50k
SYMBOL res -80 -496 R90
WINDOW 0 0 56 VBottom 2
WINDOW 3 32 56 VTop 2
SYMATTR InstName R13
SYMATTR Value 6k
SYMBOL PowerProducts\\LT1086 1024 -608 R0
SYMATTR InstName U1
SYMBOL res 1008 -432 R0
SYMATTR InstName R10
SYMATTR Value 330
SYMBOL res 1216 -592 R0
SYMATTR InstName R12
SYMATTR Value 330
TEXT -224 208 Left 2 !.tran 0 0.01 0.001 0.001
TEXT 1176 -8 Left 2 ;Fine Tune Varistor
TEXT 568 -192 Left 2 ;2-Stage BJT Open-Loop Amplifier
TEXT 752 -736 Left 2 ;DC Adjustable Regulator for DC Attenuation
TEXT 1312 -536 Left 2 ;Fine Tune Varistor
TEXT 1136 -64 Left 2 ;Range: 0-4k --> Vout: 0-8V
TEXT 1112 -368 Left 2 ;Large Step Varistor
TEXT -368 -680 Left 2 ;Piezoelectric Device w/ Summation Resistor Configuration
TEXT 1840 -744 Left 2 ;Upper Limit: R9=4k, R10=4.7k
TEXT 1840 -696 Left 2 ;LowerLimit: R9=0, R10=0,R12=0
