Version 4
SHEET 1 2020 680
WIRE -48 -144 -48 -208
WIRE -48 -16 -48 -64
WIRE -288 32 -288 -48
WIRE 384 32 336 32
WIRE 512 32 464 32
WIRE 896 80 784 80
WIRE 1040 80 976 80
WIRE 1840 80 1760 80
WIRE 2016 80 1920 80
WIRE 1376 96 1264 96
WIRE 1520 96 1456 96
WIRE -48 112 -48 64
WIRE -16 112 -48 112
WIRE 176 112 64 112
WIRE 240 112 176 112
WIRE 336 112 336 32
WIRE 336 112 240 112
WIRE -288 160 -288 112
WIRE -288 160 -400 160
WIRE 176 160 176 112
WIRE 240 160 240 112
WIRE -400 192 -400 160
WIRE 336 192 336 112
WIRE 400 192 336 192
WIRE -288 208 -288 160
WIRE 512 208 512 32
WIRE 512 208 464 208
WIRE 560 208 512 208
WIRE 656 208 624 208
WIRE 784 208 784 80
WIRE 784 208 736 208
WIRE 800 208 784 208
WIRE 1520 208 1520 96
WIRE 1616 208 1520 208
WIRE 1760 208 1760 80
WIRE 1760 208 1696 208
WIRE 1776 208 1760 208
WIRE 400 224 336 224
WIRE 1040 224 1040 80
WIRE 1040 224 864 224
WIRE 1136 224 1040 224
WIRE 1264 224 1264 96
WIRE 1264 224 1216 224
WIRE 1280 224 1264 224
WIRE 2016 224 2016 80
WIRE 2016 224 1840 224
WIRE 800 240 768 240
WIRE 1520 240 1520 208
WIRE 1520 240 1344 240
WIRE 1776 240 1728 240
WIRE 1280 256 1248 256
WIRE 176 272 176 224
WIRE 240 272 240 240
WIRE 240 272 176 272
WIRE 336 272 336 224
WIRE 336 272 240 272
WIRE 768 288 768 240
WIRE 1248 304 1248 256
WIRE 1728 304 1728 240
WIRE -288 352 -288 288
FLAG -400 192 0
FLAG -288 -48 Vdd
FLAG -288 352 Vss
FLAG 432 176 Vdd
FLAG 832 192 Vdd
FLAG 768 288 0
FLAG 432 240 Vss
FLAG 832 256 Vss
FLAG 336 272 0
FLAG -48 -208 0
FLAG 1312 208 Vdd
FLAG 1248 304 0
FLAG 1312 272 Vss
FLAG 1808 192 Vdd
FLAG 1808 256 Vss
FLAG 1728 304 0
SYMBOL voltage -288 16 R0
WINDOW 123 0 0 Left 2
WINDOW 39 0 0 Left 2
SYMATTR InstName V1
SYMATTR Value 5
SYMBOL voltage -288 192 R0
WINDOW 123 0 0 Left 2
WINDOW 39 0 0 Left 2
SYMATTR InstName V2
SYMATTR Value 5
SYMBOL Opamps\\LT1001 432 144 R0
SYMATTR InstName U1
SYMBOL Opamps\\LT1001 832 160 R0
SYMATTR InstName U2
SYMBOL current -16 112 R270
WINDOW 0 32 40 VTop 2
WINDOW 3 -32 40 Invisible 2
WINDOW 123 0 0 Left 2
WINDOW 39 0 0 Left 2
SYMATTR InstName I1
SYMATTR Value SINE(0.00000005 0.0000001 200)
SYMBOL res 752 192 R90
WINDOW 0 0 56 VBottom 2
WINDOW 3 32 56 VTop 2
SYMATTR InstName R1
SYMATTR Value 200
SYMBOL res 992 64 R90
WINDOW 0 0 56 VBottom 2
WINDOW 3 32 56 VTop 2
SYMATTR InstName R2
SYMATTR Value 11k
SYMBOL res 368 48 R270
WINDOW 0 32 56 VTop 2
WINDOW 3 0 56 VBottom 2
SYMATTR InstName R3
SYMATTR Value 13k
SYMBOL res 224 144 R0
SYMATTR InstName R4
SYMATTR Value 100
SYMBOL cap 160 160 R0
WINDOW 0 -40 5 Left 2
WINDOW 3 -47 56 Left 2
SYMATTR InstName C2
SYMATTR Value 33p
SYMBOL voltage -48 -48 R180
WINDOW 0 24 96 Left 2
WINDOW 3 24 16 Left 2
WINDOW 123 0 0 Left 2
WINDOW 39 0 0 Left 2
SYMATTR InstName V3
SYMATTR Value 5
SYMBOL res -64 -32 R0
SYMATTR InstName R5
SYMATTR Value 12k
SYMBOL cap 624 192 R90
WINDOW 0 0 32 VBottom 2
WINDOW 3 32 32 VTop 2
SYMATTR InstName C1
SYMATTR Value 470µ
SYMBOL Opamps\\LT1001 1312 176 R0
SYMATTR InstName U3
SYMBOL res 1232 208 R90
WINDOW 0 0 56 VBottom 2
WINDOW 3 32 56 VTop 2
SYMATTR InstName R6
SYMATTR Value 200
SYMBOL res 1472 80 R90
WINDOW 0 0 56 VBottom 2
WINDOW 3 32 56 VTop 2
SYMATTR InstName R7
SYMATTR Value 10k
SYMBOL Opamps\\LT1001 1808 160 R0
SYMATTR InstName U4
SYMBOL res 1600 224 R270
WINDOW 0 32 56 VTop 2
WINDOW 3 0 56 VBottom 2
SYMATTR InstName R8
SYMATTR Value 1k
SYMBOL res 1824 96 R270
WINDOW 0 32 56 VTop 2
WINDOW 3 0 56 VBottom 2
SYMATTR InstName R9
SYMATTR Value 15k
TEXT -420 448 Left 2 !.tran 0.01
